<?xml version="1.0" encoding="UTF-8"?>

<!-- generated on 2025-03-09 19:42:09 by Eclipse SUMO netedit Version 1.22.0
<neteditConfiguration xmlns:xsi="http://www.w3.org/2001/XMLSchema-instance" xsi:noNamespaceSchemaLocation="http://sumo.dlr.de/xsd/neteditConfiguration.xsd">

    <input>
        <sumo-net-file value="/home/netsim/opt/eclipse-mosaic-24.1/scenarios/tutorial/sumo/tutorial.net.xml"/>
    </input>

    <output>
        <output-file value="/home/netsim/opt/eclipse-mosaic-24.1/scenarios/tutorial/sumo/tutorial.net.xml"/>
    </output>

    <processing>
        <offset.disable-normalization value="true"/>
    </processing>

    <junctions>
        <no-turnarounds value="true"/>
    </junctions>

    <netedit>
        <new-network value="false"/>
    </netedit>

</neteditConfiguration>
-->

<net version="1.20" junctionCornerDetail="5" limitTurnSpeed="5.50" xmlns:xsi="http://www.w3.org/2001/XMLSchema-instance" xsi:noNamespaceSchemaLocation="http://sumo.dlr.de/xsd/net_file.xsd">

    <location netOffset="-296099.24,-4095661.94" convBoundary="0.00,0.00,1000.00,0.00" origBoundary="296099.236000,4096661.943000,296099.236000,4095661.943000" projParameter="+proj=utm +zone=27 +ellps=WGS84 +datum=WGS84 +units=m +no_defs"/>

    <edge id=":J1_0" function="internal">
        <lane id=":J1_0_0" index="0" speed="40.00" length="0.10" shape="500.00,4.80 500.00,4.80"/>
        <lane id=":J1_0_1" index="1" speed="40.00" length="0.10" shape="500.00,1.60 500.00,1.60"/>
    </edge>
    <edge id=":J1_2" function="internal">
        <lane id=":J1_2_0" index="0" speed="40.00" length="0.10" shape="500.00,-4.80 500.00,-4.80"/>
        <lane id=":J1_2_1" index="1" speed="40.00" length="0.10" shape="500.00,-1.60 500.00,-1.60"/>
    </edge>

    <edge id="-E0" from="J1" to="J0" priority="-1">
        <lane id="-E0_0" index="0" speed="40.00" length="500.00" shape="500.00,4.80 0.00,4.80"/>
        <lane id="-E0_1" index="1" speed="40.00" length="500.00" shape="500.00,1.60 0.00,1.60"/>
    </edge>
    <edge id="-E1" from="J2" to="J1" priority="-1">
        <lane id="-E1_0" index="0" speed="40.00" length="500.00" shape="1000.00,4.80 500.00,4.80"/>
        <lane id="-E1_1" index="1" speed="40.00" length="500.00" shape="1000.00,1.60 500.00,1.60"/>
    </edge>
    <edge id="E0" from="J0" to="J1" priority="-1">
        <lane id="E0_0" index="0" speed="40.00" length="500.00" shape="0.00,-4.80 500.00,-4.80"/>
        <lane id="E0_1" index="1" speed="40.00" length="500.00" shape="0.00,-1.60 500.00,-1.60"/>
    </edge>
    <edge id="E1" from="J1" to="J2" priority="-1">
        <lane id="E1_0" index="0" speed="40.00" length="500.00" shape="500.00,-4.80 1000.00,-4.80"/>
        <lane id="E1_1" index="1" speed="40.00" length="500.00" shape="500.00,-1.60 1000.00,-1.60"/>
    </edge>

    <tlLogic id="J1" type="static" programID="0" offset="0">
        <phase duration="77" state="GGGG"/>
        <phase duration="8"  state="ggyy"/>
        <phase duration="5"  state="ggrr"/>
    </tlLogic>

    <junction id="J0" type="dead_end" x="0.00" y="0.00" incLanes="-E0_0 -E0_1" intLanes="" shape="0.00,0.00 0.00,6.40 0.00,0.00"/>
    <junction id="J1" type="traffic_light" x="500.00" y="0.00" incLanes="-E1_0 -E1_1 E0_0 E0_1" intLanes=":J1_0_0 :J1_0_1 :J1_2_0 :J1_2_1" shape="500.00,6.40 500.00,-6.40 500.00,6.40">
        <request index="0" response="0000" foes="0000" cont="0"/>
        <request index="1" response="0000" foes="0000" cont="0"/>
        <request index="2" response="0000" foes="0000" cont="0"/>
        <request index="3" response="0000" foes="0000" cont="0"/>
    </junction>
    <junction id="J2" type="dead_end" x="1000.00" y="0.00" incLanes="E1_0 E1_1" intLanes="" shape="1000.00,0.00 1000.00,-6.40 1000.00,0.00"/>

    <connection from="-E1" to="-E0" fromLane="0" toLane="0" via=":J1_0_0" tl="J1" linkIndex="0" dir="s" state="O"/>
    <connection from="-E1" to="-E0" fromLane="1" toLane="1" via=":J1_0_1" tl="J1" linkIndex="1" dir="s" state="O"/>
    <connection from="E0" to="E1" fromLane="0" toLane="0" via=":J1_2_0" tl="J1" linkIndex="2" dir="s" state="O"/>
    <connection from="E0" to="E1" fromLane="1" toLane="1" via=":J1_2_1" tl="J1" linkIndex="3" dir="s" state="O"/>

    <connection from=":J1_0" to="-E0" fromLane="0" toLane="0" dir="s" state="M"/>
    <connection from=":J1_0" to="-E0" fromLane="1" toLane="1" dir="s" state="M"/>
    <connection from=":J1_2" to="E1" fromLane="0" toLane="0" dir="s" state="M"/>
    <connection from=":J1_2" to="E1" fromLane="1" toLane="1" dir="s" state="M"/>

</net>
