<?xml version="1.0" encoding="UTF-8"?>

<!-- generated on 2025-03-09 19:42:45 by Eclipse SUMO netedit Version 1.22.0
-->

<routes xmlns:xsi="http://www.w3.org/2001/XMLSchema-instance" xsi:noNamespaceSchemaLocation="http://sumo.dlr.de/xsd/routes_file.xsd">
    <!-- Routes -->
    <route id="r_0" edges="-E1 -E0"/>
    <route id="r_1" edges="E0 E1"/>
</routes>
